AlkEthOH_c42
  -OEChem-04141717353D

 20 19  0     1  0  0  0  0  0999 V2000
   -1.0083    2.4197    0.8759 C   0  0  0  0  0  0  0  0  0  0  0  0
   -0.6604   -2.2439   -1.2280 C   0  0  0  0  0  0  0  0  0  0  0  0
   -0.0929    1.2560    0.5156 C   0  0  1  0  0  0  0  0  0  0  0  0
    0.0846   -1.1054   -0.5446 C   0  0  1  0  0  0  0  0  0  0  0  0
   -0.7887    0.1261   -0.2601 C   0  0  0  0  0  0  0  0  0  0  0  0
    0.9694    1.7823   -0.2842 O   0  0  0  0  0  0  0  0  0  0  0  0
    0.5693   -1.5859    0.7141 O   0  0  0  0  0  0  0  0  0  0  0  0
   -1.9279   -0.3026    0.4980 O   0  0  0  0  0  0  0  0  0  0  0  0
   -1.4785    2.8229   -0.0280 H   0  0  0  0  0  0  0  0  0  0  0  0
   -0.4612    3.2296    1.3659 H   0  0  0  0  0  0  0  0  0  0  0  0
   -1.8257    2.0985    1.5302 H   0  0  0  0  0  0  0  0  0  0  0  0
   -1.5437   -2.5351   -0.6490 H   0  0  0  0  0  0  0  0  0  0  0  0
   -0.0238   -3.1330   -1.2961 H   0  0  0  0  0  0  0  0  0  0  0  0
   -0.9744   -1.9758   -2.2404 H   0  0  0  0  0  0  0  0  0  0  0  0
    0.3680    0.8655    1.4287 H   0  0  0  0  0  0  0  0  0  0  0  0
    0.9658   -0.8211   -1.1304 H   0  0  0  0  0  0  0  0  0  0  0  0
   -1.1910    0.5250   -1.1998 H   0  0  0  0  0  0  0  0  0  0  0  0
    1.4195    2.4424    0.2630 H   0  0  0  0  0  0  0  0  0  0  0  0
    1.1565   -2.3281    0.5113 H   0  0  0  0  0  0  0  0  0  0  0  0
   -1.5832   -0.6112    1.3474 H   0  0  0  0  0  0  0  0  0  0  0  0
  1  3  1  0  0  0  0
  2  4  1  0  0  0  0
  3  5  1  0  0  0  0
  3  6  1  0  0  0  0
  4  5  1  0  0  0  0
  4  7  1  0  0  0  0
  5  8  1  0  0  0  0
  1  9  1  0  0  0  0
  1 10  1  0  0  0  0
  1 11  1  0  0  0  0
  2 12  1  0  0  0  0
  2 13  1  0  0  0  0
  2 14  1  0  0  0  0
  3 15  1  0  0  0  0
  4 16  1  0  0  0  0
  5 17  1  0  0  0  0
  6 18  1  0  0  0  0
  7 19  1  0  0  0  0
  8 20  1  0  0  0  0
M  END
$$$$
AlkEthOH_c80
  -OEChem-04141717353D

 23 22  0     1  0  0  0  0  0999 V2000
   -0.8219   -0.7579    1.8572 C   0  0  0  0  0  0  0  0  0  0  0  0
    1.7406   -0.2094    0.1990 C   0  0  0  0  0  0  0  0  0  0  0  0
   -1.0121    1.7007   -3.3005 C   0  0  0  0  0  0  0  0  0  0  0  0
    0.3076    0.7495   -1.6045 C   0  0  0  0  0  0  0  0  0  0  0  0
   -0.8073   -0.4632    0.3584 C   0  0  1  0  0  0  0  0  0  0  0  0
    0.3765    0.4233   -0.1009 C   0  0  1  0  0  0  0  0  0  0  0  0
   -0.7841   -1.6999   -0.3508 O   0  0  0  0  0  0  0  0  0  0  0  0
    0.3265    1.6616    0.6168 O   0  0  0  0  0  0  0  0  0  0  0  0
   -0.9439    1.3462   -1.9267 O   0  0  0  0  0  0  0  0  0  0  0  0
    0.0950   -1.2641    2.1759 H   0  0  0  0  0  0  0  0  0  0  0  0
   -1.6439   -1.4423    2.0963 H   0  0  0  0  0  0  0  0  0  0  0  0
   -0.9541    0.1521    2.4492 H   0  0  0  0  0  0  0  0  0  0  0  0
    1.8265   -0.4560    1.2640 H   0  0  0  0  0  0  0  0  0  0  0  0
    2.5672    0.4580   -0.0646 H   0  0  0  0  0  0  0  0  0  0  0  0
    1.8688   -1.1570   -0.3351 H   0  0  0  0  0  0  0  0  0  0  0  0
   -1.9832    2.1547   -3.5126 H   0  0  0  0  0  0  0  0  0  0  0  0
   -0.8732    0.8079   -3.9154 H   0  0  0  0  0  0  0  0  0  0  0  0
   -0.2201    2.4200   -3.5218 H   0  0  0  0  0  0  0  0  0  0  0  0
    0.4238   -0.1528   -2.2141 H   0  0  0  0  0  0  0  0  0  0  0  0
    1.0895    1.4661   -1.8795 H   0  0  0  0  0  0  0  0  0  0  0  0
   -1.7515    0.0404    0.1179 H   0  0  0  0  0  0  0  0  0  0  0  0
   -1.5867   -2.1797   -0.0945 H   0  0  0  0  0  0  0  0  0  0  0  0
    1.0604    2.1965    0.2823 H   0  0  0  0  0  0  0  0  0  0  0  0
  1  5  1  0  0  0  0
  2  6  1  0  0  0  0
  3  9  1  0  0  0  0
  4  6  1  0  0  0  0
  4  9  1  0  0  0  0
  5  6  1  0  0  0  0
  5  7  1  0  0  0  0
  6  8  1  0  0  0  0
  1 10  1  0  0  0  0
  1 11  1  0  0  0  0
  1 12  1  0  0  0  0
  2 13  1  0  0  0  0
  2 14  1  0  0  0  0
  2 15  1  0  0  0  0
  3 16  1  0  0  0  0
  3 17  1  0  0  0  0
  3 18  1  0  0  0  0
  4 19  1  0  0  0  0
  4 20  1  0  0  0  0
  5 21  1  0  0  0  0
  7 22  1  0  0  0  0
  8 23  1  0  0  0  0
M  END
$$$$
AlkEthOH_c154
  -OEChem-04141717353D

 29 28  0     0  0  0  0  0  0999 V2000
    0.8857    1.4410   -2.0244 C   0  0  0  0  0  0  0  0  0  0  0  0
   -1.5608    1.4735   -1.4783 C   0  0  0  0  0  0  0  0  0  0  0  0
    0.1181    1.2061    0.3290 C   0  0  0  0  0  0  0  0  0  0  0  0
    1.2526    5.6429   -0.4274 C   0  0  0  0  0  0  0  0  0  0  0  0
    2.4373    3.4348   -0.3499 C   0  0  0  0  0  0  0  0  0  0  0  0
    0.8855    4.0833    1.4742 C   0  0  0  0  0  0  0  0  0  0  0  0
   -0.1048    3.4572   -0.7333 C   0  0  0  0  0  0  0  0  0  0  0  0
   -0.1622    1.9230   -1.0157 C   0  0  0  0  0  0  0  0  0  0  0  0
    1.1122    4.1627   -0.0566 C   0  0  0  0  0  0  0  0  0  0  0  0
    1.8967    1.7394   -1.7341 H   0  0  0  0  0  0  0  0  0  0  0  0
    0.7061    1.8743   -3.0157 H   0  0  0  0  0  0  0  0  0  0  0  0
    0.8587    0.3518   -2.1354 H   0  0  0  0  0  0  0  0  0  0  0  0
   -2.3361    1.8024   -0.7777 H   0  0  0  0  0  0  0  0  0  0  0  0
   -1.8169    1.8541   -2.4687 H   0  0  0  0  0  0  0  0  0  0  0  0
   -1.6197    0.3803   -1.5419 H   0  0  0  0  0  0  0  0  0  0  0  0
   -0.6018    1.5096    1.0977 H   0  0  0  0  0  0  0  0  0  0  0  0
    1.1201    1.4405    0.7066 H   0  0  0  0  0  0  0  0  0  0  0  0
    0.0519    0.1177    0.2183 H   0  0  0  0  0  0  0  0  0  0  0  0
    0.3253    6.1913   -0.2306 H   0  0  0  0  0  0  0  0  0  0  0  0
    1.5222    5.7747   -1.4788 H   0  0  0  0  0  0  0  0  0  0  0  0
    2.0455    6.1220    0.1596 H   0  0  0  0  0  0  0  0  0  0  0  0
    2.3650    2.3711   -0.0931 H   0  0  0  0  0  0  0  0  0  0  0  0
    3.2723    3.8352    0.2282 H   0  0  0  0  0  0  0  0  0  0  0  0
    2.6991    3.4978   -1.4119 H   0  0  0  0  0  0  0  0  0  0  0  0
    0.7766    3.0441    1.8054 H   0  0  0  0  0  0  0  0  0  0  0  0
   -0.0224    4.6201    1.7730 H   0  0  0  0  0  0  0  0  0  0  0  0
    1.7264    4.5238    2.0221 H   0  0  0  0  0  0  0  0  0  0  0  0
   -0.2800    3.9560   -1.6987 H   0  0  0  0  0  0  0  0  0  0  0  0
   -0.9872    3.7143   -0.1280 H   0  0  0  0  0  0  0  0  0  0  0  0
  1  8  1  0  0  0  0
  2  8  1  0  0  0  0
  3  8  1  0  0  0  0
  4  9  1  0  0  0  0
  5  9  1  0  0  0  0
  6  9  1  0  0  0  0
  7  8  1  0  0  0  0
  7  9  1  0  0  0  0
  1 10  1  0  0  0  0
  1 11  1  0  0  0  0
  1 12  1  0  0  0  0
  2 13  1  0  0  0  0
  2 14  1  0  0  0  0
  2 15  1  0  0  0  0
  3 16  1  0  0  0  0
  3 17  1  0  0  0  0
  3 18  1  0  0  0  0
  4 19  1  0  0  0  0
  4 20  1  0  0  0  0
  4 21  1  0  0  0  0
  5 22  1  0  0  0  0
  5 23  1  0  0  0  0
  5 24  1  0  0  0  0
  6 25  1  0  0  0  0
  6 26  1  0  0  0  0
  6 27  1  0  0  0  0
  7 28  1  0  0  0  0
  7 29  1  0  0  0  0
M  END
$$$$
AlkEthOH_c260
  -OEChem-04141717353D

 25 24  0     1  0  0  0  0  0999 V2000
   -0.5257    1.3588   -2.2843 C   0  0  0  0  0  0  0  0  0  0  0  0
   -0.8750    2.0312    0.0913 C   0  0  0  0  0  0  0  0  0  0  0  0
    1.6947   -1.6423    1.1528 C   0  0  0  0  0  0  0  0  0  0  0  0
   -0.7988   -1.5490    1.2121 C   0  0  0  0  0  0  0  0  0  0  0  0
   -0.6925    0.8380   -0.8473 C   0  0  0  0  0  0  0  0  0  0  0  0
    0.4973   -0.0854   -0.4655 C   0  0  1  0  0  0  0  0  0  0  0  0
    0.4712   -0.7352    0.9465 C   0  0  0  0  0  0  0  0  0  0  0  0
    0.6013   -1.1180   -1.4531 O   0  0  0  0  0  0  0  0  0  0  0  0
    0.5409    0.2821    1.9486 O   0  0  0  0  0  0  0  0  0  0  0  0
    0.3819    1.9643   -2.3818 H   0  0  0  0  0  0  0  0  0  0  0  0
   -1.3797    1.9805   -2.5744 H   0  0  0  0  0  0  0  0  0  0  0  0
   -0.4654    0.5357   -3.0036 H   0  0  0  0  0  0  0  0  0  0  0  0
    0.0288    2.6502    0.1160 H   0  0  0  0  0  0  0  0  0  0  0  0
   -1.6892    2.6814   -0.2398 H   0  0  0  0  0  0  0  0  0  0  0  0
   -1.0843    1.7029    1.1149 H   0  0  0  0  0  0  0  0  0  0  0  0
    2.6360   -1.1124    0.9759 H   0  0  0  0  0  0  0  0  0  0  0  0
    1.6564   -2.5065    0.4792 H   0  0  0  0  0  0  0  0  0  0  0  0
    1.7104   -2.0473    2.1712 H   0  0  0  0  0  0  0  0  0  0  0  0
   -1.6915   -0.9275    1.0726 H   0  0  0  0  0  0  0  0  0  0  0  0
   -0.8226   -1.9538    2.2284 H   0  0  0  0  0  0  0  0  0  0  0  0
   -0.9008   -2.3770    0.5031 H   0  0  0  0  0  0  0  0  0  0  0  0
   -1.6177    0.2477   -0.8414 H   0  0  0  0  0  0  0  0  0  0  0  0
    1.4158    0.5110   -0.5455 H   0  0  0  0  0  0  0  0  0  0  0  0
   -0.2406   -1.5945   -1.4334 H   0  0  0  0  0  0  0  0  0  0  0  0
    0.5193   -0.1753    2.8020 H   0  0  0  0  0  0  0  0  0  0  0  0
  1  5  1  0  0  0  0
  2  5  1  0  0  0  0
  3  7  1  0  0  0  0
  4  7  1  0  0  0  0
  5  6  1  0  0  0  0
  6  7  1  0  0  0  0
  6  8  1  0  0  0  0
  7  9  1  0  0  0  0
  1 10  1  0  0  0  0
  1 11  1  0  0  0  0
  1 12  1  0  0  0  0
  2 13  1  0  0  0  0
  2 14  1  0  0  0  0
  2 15  1  0  0  0  0
  3 16  1  0  0  0  0
  3 17  1  0  0  0  0
  3 18  1  0  0  0  0
  4 19  1  0  0  0  0
  4 20  1  0  0  0  0
  4 21  1  0  0  0  0
  5 22  1  0  0  0  0
  6 23  1  0  0  0  0
  8 24  1  0  0  0  0
  9 25  1  0  0  0  0
M  END
$$$$
AlkEthOH_c312
  -OEChem-04141717353D

 20 19  0     0  0  0  0  0  0999 V2000
    0.5108   -0.7952    0.5544 C   0  0  0  0  0  0  0  0  0  0  0  0
    0.2493    0.5315    2.6603 C   0  0  0  0  0  0  0  0  0  0  0  0
    1.2273   -2.3856    3.1709 C   0  0  0  0  0  0  0  0  0  0  0  0
    3.2006   -1.8542    1.7262 C   0  0  0  0  0  0  0  0  0  0  0  0
    1.2455   -0.2135    1.7653 C   0  0  0  0  0  0  0  0  0  0  0  0
    2.0681   -1.2569    2.5683 C   0  0  0  0  0  0  0  0  0  0  0  0
   -0.2170   -1.5576    0.8485 H   0  0  0  0  0  0  0  0  0  0  0  0
   -0.0356   -0.0068    0.0248 H   0  0  0  0  0  0  0  0  0  0  0  0
    1.2068   -1.2418   -0.1614 H   0  0  0  0  0  0  0  0  0  0  0  0
   -0.4890   -0.1644    3.0737 H   0  0  0  0  0  0  0  0  0  0  0  0
    0.7460    1.0231    3.5025 H   0  0  0  0  0  0  0  0  0  0  0  0
   -0.2956    1.2917    2.0911 H   0  0  0  0  0  0  0  0  0  0  0  0
    0.7183   -2.9652    2.3955 H   0  0  0  0  0  0  0  0  0  0  0  0
    1.8357   -3.0707    3.7697 H   0  0  0  0  0  0  0  0  0  0  0  0
    0.4525   -1.9750    3.8285 H   0  0  0  0  0  0  0  0  0  0  0  0
    2.8191   -2.4084    0.8628 H   0  0  0  0  0  0  0  0  0  0  0  0
    3.7982   -2.5494    2.3263 H   0  0  0  0  0  0  0  0  0  0  0  0
    3.8727   -1.0702    1.3620 H   0  0  0  0  0  0  0  0  0  0  0  0
    1.9519    0.5380    1.3867 H   0  0  0  0  0  0  0  0  0  0  0  0
    2.5440   -0.7248    3.4034 H   0  0  0  0  0  0  0  0  0  0  0  0
  1  5  1  0  0  0  0
  2  5  1  0  0  0  0
  3  6  1  0  0  0  0
  4  6  1  0  0  0  0
  5  6  1  0  0  0  0
  1  7  1  0  0  0  0
  1  8  1  0  0  0  0
  1  9  1  0  0  0  0
  2 10  1  0  0  0  0
  2 11  1  0  0  0  0
  2 12  1  0  0  0  0
  3 13  1  0  0  0  0
  3 14  1  0  0  0  0
  3 15  1  0  0  0  0
  4 16  1  0  0  0  0
  4 17  1  0  0  0  0
  4 18  1  0  0  0  0
  5 19  1  0  0  0  0
  6 20  1  0  0  0  0
M  END
$$$$
AlkEthOH_c1008
  -OEChem-04141717353D

 14 13  0     0  0  0  0  0  0999 V2000
    0.4048   -0.7298    0.7083 C   0  0  0  0  0  0  0  0  0  0  0  0
    2.5420    1.6208    2.9190 C   0  0  0  0  0  0  0  0  0  0  0  0
    1.6372   -0.1820    1.4100 C   0  0  0  0  0  0  0  0  0  0  0  0
    1.3160    1.0885    2.1945 C   0  0  0  0  0  0  0  0  0  0  0  0
   -0.0187    0.0118    0.0234 H   0  0  0  0  0  0  0  0  0  0  0  0
    0.6479   -1.6293    0.1339 H   0  0  0  0  0  0  0  0  0  0  0  0
   -0.3638   -0.9927    1.4420 H   0  0  0  0  0  0  0  0  0  0  0  0
    2.9465    0.8722    3.6077 H   0  0  0  0  0  0  0  0  0  0  0  0
    2.2823    2.5118    3.4994 H   0  0  0  0  0  0  0  0  0  0  0  0
    3.3288    1.8955    2.2091 H   0  0  0  0  0  0  0  0  0  0  0  0
    2.0358   -0.9470    2.0866 H   0  0  0  0  0  0  0  0  0  0  0  0
    2.4129    0.0268    0.6640 H   0  0  0  0  0  0  0  0  0  0  0  0
    0.9367    1.8604    1.5146 H   0  0  0  0  0  0  0  0  0  0  0  0
    0.5258    0.8846    2.9266 H   0  0  0  0  0  0  0  0  0  0  0  0
  1  3  1  0  0  0  0
  2  4  1  0  0  0  0
  3  4  1  0  0  0  0
  1  5  1  0  0  0  0
  1  6  1  0  0  0  0
  1  7  1  0  0  0  0
  2  8  1  0  0  0  0
  2  9  1  0  0  0  0
  2 10  1  0  0  0  0
  3 11  1  0  0  0  0
  3 12  1  0  0  0  0
  4 13  1  0  0  0  0
  4 14  1  0  0  0  0
M  END
$$$$
AlkEthOH_c1159
  -OEChem-04141717353D

 19 18  0     0  0  0  0  0  0999 V2000
   -0.0095   -0.6551    0.8768 C   0  0  0  0  0  0  0  0  0  0  0  0
    1.2444   -0.4434    1.7060 C   0  0  0  0  0  0  0  0  0  0  0  0
    1.2749   -1.3494    2.9273 C   0  0  0  0  0  0  0  0  0  0  0  0
    3.8457   -1.6035    5.5465 C   0  0  0  0  0  0  0  0  0  0  0  0
    2.5499   -1.9092    4.8204 C   0  0  0  0  0  0  0  0  0  0  0  0
    4.9400   -1.8943    4.6855 O   0  0  0  0  0  0  0  0  0  0  0  0
    2.4629   -1.0899    3.6622 O   0  0  0  0  0  0  0  0  0  0  0  0
   -0.0920   -1.6965    0.5497 H   0  0  0  0  0  0  0  0  0  0  0  0
   -0.8996   -0.4128    1.4659 H   0  0  0  0  0  0  0  0  0  0  0  0
   -0.0053   -0.0150   -0.0111 H   0  0  0  0  0  0  0  0  0  0  0  0
    1.3083    0.6043    2.0234 H   0  0  0  0  0  0  0  0  0  0  0  0
    2.1333   -0.6260    1.0902 H   0  0  0  0  0  0  0  0  0  0  0  0
    0.4147   -1.1588    3.5770 H   0  0  0  0  0  0  0  0  0  0  0  0
    1.2712   -2.4035    2.6320 H   0  0  0  0  0  0  0  0  0  0  0  0
    3.9478   -2.2175    6.4466 H   0  0  0  0  0  0  0  0  0  0  0  0
    3.8933   -0.5442    5.8153 H   0  0  0  0  0  0  0  0  0  0  0  0
    1.6829   -1.6969    5.4539 H   0  0  0  0  0  0  0  0  0  0  0  0
    2.5267   -2.9556    4.5025 H   0  0  0  0  0  0  0  0  0  0  0  0
    5.7480   -1.6876    5.1817 H   0  0  0  0  0  0  0  0  0  0  0  0
  1  2  1  0  0  0  0
  2  3  1  0  0  0  0
  3  7  1  0  0  0  0
  4  5  1  0  0  0  0
  4  6  1  0  0  0  0
  5  7  1  0  0  0  0
  1  8  1  0  0  0  0
  1  9  1  0  0  0  0
  1 10  1  0  0  0  0
  2 11  1  0  0  0  0
  2 12  1  0  0  0  0
  3 13  1  0  0  0  0
  3 14  1  0  0  0  0
  4 15  1  0  0  0  0
  4 16  1  0  0  0  0
  5 17  1  0  0  0  0
  5 18  1  0  0  0  0
  6 19  1  0  0  0  0
M  END
$$$$
AlkEthOH_c1178
  -OEChem-04141717353D

 28 27  0     0  0  0  0  0  0999 V2000
   -1.9122    0.0591   -5.1154 C   0  0  0  0  0  0  0  0  0  0  0  0
   -1.7562   -2.1655    0.6235 C   0  0  0  0  0  0  0  0  0  0  0  0
   -0.5833   -2.8973   -1.4641 C   0  0  0  0  0  0  0  0  0  0  0  0
   -3.4862   -1.7616   -1.9060 C   0  0  0  0  0  0  0  0  0  0  0  0
   -2.6891    0.4050   -0.9365 C   0  0  0  0  0  0  0  0  0  0  0  0
   -2.6061   -0.2785   -3.8130 C   0  0  0  0  0  0  0  0  0  0  0  0
   -1.1921   -1.6962   -0.7274 C   0  0  0  0  0  0  0  0  0  0  0  0
   -2.2445   -0.9158   -1.5800 C   0  0  0  0  0  0  0  0  0  0  0  0
   -0.1155   -0.7914   -0.4312 O   0  0  0  0  0  0  0  0  0  0  0  0
   -1.6290   -0.5880   -2.8368 O   0  0  0  0  0  0  0  0  0  0  0  0
   -1.2539    0.9238   -4.9941 H   0  0  0  0  0  0  0  0  0  0  0  0
   -1.3184   -0.7907   -5.4679 H   0  0  0  0  0  0  0  0  0  0  0  0
   -2.6460    0.2807   -5.8973 H   0  0  0  0  0  0  0  0  0  0  0  0
   -2.2011   -1.3345    1.1816 H   0  0  0  0  0  0  0  0  0  0  0  0
   -2.5075   -2.9518    0.5057 H   0  0  0  0  0  0  0  0  0  0  0  0
   -0.9561   -2.5601    1.2616 H   0  0  0  0  0  0  0  0  0  0  0  0
   -0.1658   -2.6175   -2.4355 H   0  0  0  0  0  0  0  0  0  0  0  0
    0.1983   -3.3796   -0.8685 H   0  0  0  0  0  0  0  0  0  0  0  0
   -1.3425   -3.6696   -1.6371 H   0  0  0  0  0  0  0  0  0  0  0  0
   -3.2238   -2.7175   -2.3685 H   0  0  0  0  0  0  0  0  0  0  0  0
   -4.0588   -1.9764   -0.9957 H   0  0  0  0  0  0  0  0  0  0  0  0
   -4.1719   -1.2255   -2.5710 H   0  0  0  0  0  0  0  0  0  0  0  0
   -1.8323    1.0391   -0.6879 H   0  0  0  0  0  0  0  0  0  0  0  0
   -3.2971    0.9905   -1.6368 H   0  0  0  0  0  0  0  0  0  0  0  0
   -3.2842    0.2444   -0.0330 H   0  0  0  0  0  0  0  0  0  0  0  0
   -3.2628   -1.1441   -3.9411 H   0  0  0  0  0  0  0  0  0  0  0  0
   -3.1982    0.5718   -3.4617 H   0  0  0  0  0  0  0  0  0  0  0  0
    0.5260   -1.3023    0.0799 H   0  0  0  0  0  0  0  0  0  0  0  0
  1  6  1  0  0  0  0
  2  7  1  0  0  0  0
  3  7  1  0  0  0  0
  4  8  1  0  0  0  0
  5  8  1  0  0  0  0
  6 10  1  0  0  0  0
  7  8  1  0  0  0  0
  7  9  1  0  0  0  0
  8 10  1  0  0  0  0
  1 11  1  0  0  0  0
  1 12  1  0  0  0  0
  1 13  1  0  0  0  0
  2 14  1  0  0  0  0
  2 15  1  0  0  0  0
  2 16  1  0  0  0  0
  3 17  1  0  0  0  0
  3 18  1  0  0  0  0
  3 19  1  0  0  0  0
  4 20  1  0  0  0  0
  4 21  1  0  0  0  0
  4 22  1  0  0  0  0
  5 23  1  0  0  0  0
  5 24  1  0  0  0  0
  5 25  1  0  0  0  0
  6 26  1  0  0  0  0
  6 27  1  0  0  0  0
  9 28  1  0  0  0  0
M  END
$$$$
