AlkEthOH_c42
  -OEChem-04151714433D

 20 19  0     1  0  0  0  0  0999 V2000
   -1.0083    2.4197    0.8759 C   0  0  0  0  0  0  0  0  0  0  0  0
   -0.6604   -2.2439   -1.2280 C   0  0  0  0  0  0  0  0  0  0  0  0
   -0.0929    1.2560    0.5156 C   0  0  1  0  0  0  0  0  0  0  0  0
    0.0846   -1.1054   -0.5446 C   0  0  1  0  0  0  0  0  0  0  0  0
   -0.7887    0.1261   -0.2601 C   0  0  0  0  0  0  0  0  0  0  0  0
    0.9694    1.7823   -0.2842 O   0  0  0  0  0  0  0  0  0  0  0  0
    0.5693   -1.5859    0.7141 O   0  0  0  0  0  0  0  0  0  0  0  0
   -1.9279   -0.3026    0.4980 O   0  0  0  0  0  0  0  0  0  0  0  0
   -1.4785    2.8229   -0.0280 H   0  0  0  0  0  0  0  0  0  0  0  0
   -0.4612    3.2296    1.3659 H   0  0  0  0  0  0  0  0  0  0  0  0
   -1.8257    2.0985    1.5302 H   0  0  0  0  0  0  0  0  0  0  0  0
   -1.5437   -2.5351   -0.6490 H   0  0  0  0  0  0  0  0  0  0  0  0
   -0.0238   -3.1330   -1.2961 H   0  0  0  0  0  0  0  0  0  0  0  0
   -0.9744   -1.9758   -2.2404 H   0  0  0  0  0  0  0  0  0  0  0  0
    0.3680    0.8655    1.4287 H   0  0  0  0  0  0  0  0  0  0  0  0
    0.9658   -0.8211   -1.1304 H   0  0  0  0  0  0  0  0  0  0  0  0
   -1.1910    0.5250   -1.1998 H   0  0  0  0  0  0  0  0  0  0  0  0
    1.4195    2.4424    0.2630 H   0  0  0  0  0  0  0  0  0  0  0  0
    1.1565   -2.3281    0.5113 H   0  0  0  0  0  0  0  0  0  0  0  0
   -1.5832   -0.6112    1.3474 H   0  0  0  0  0  0  0  0  0  0  0  0
  1  3  1  0  0  0  0
  2  4  1  0  0  0  0
  3  5  1  0  0  0  0
  3  6  1  0  0  0  0
  4  5  1  0  0  0  0
  4  7  1  0  0  0  0
  5  8  1  0  0  0  0
  1  9  1  0  0  0  0
  1 10  1  0  0  0  0
  1 11  1  0  0  0  0
  2 12  1  0  0  0  0
  2 13  1  0  0  0  0
  2 14  1  0  0  0  0
  3 15  1  0  0  0  0
  4 16  1  0  0  0  0
  5 17  1  0  0  0  0
  6 18  1  0  0  0  0
  7 19  1  0  0  0  0
  8 20  1  0  0  0  0
M  END
$$$$
AlkEthOH_c80
  -OEChem-04151714433D

 23 22  0     1  0  0  0  0  0999 V2000
   -0.8219   -0.7579    1.8572 C   0  0  0  0  0  0  0  0  0  0  0  0
    1.7406   -0.2094    0.1990 C   0  0  0  0  0  0  0  0  0  0  0  0
   -1.0121    1.7007   -3.3005 C   0  0  0  0  0  0  0  0  0  0  0  0
    0.3076    0.7495   -1.6045 C   0  0  0  0  0  0  0  0  0  0  0  0
   -0.8073   -0.4632    0.3584 C   0  0  1  0  0  0  0  0  0  0  0  0
    0.3765    0.4233   -0.1009 C   0  0  1  0  0  0  0  0  0  0  0  0
   -0.7841   -1.6999   -0.3508 O   0  0  0  0  0  0  0  0  0  0  0  0
    0.3265    1.6616    0.6168 O   0  0  0  0  0  0  0  0  0  0  0  0
   -0.9439    1.3462   -1.9267 O   0  0  0  0  0  0  0  0  0  0  0  0
    0.0950   -1.2641    2.1759 H   0  0  0  0  0  0  0  0  0  0  0  0
   -1.6439   -1.4423    2.0963 H   0  0  0  0  0  0  0  0  0  0  0  0
   -0.9541    0.1521    2.4492 H   0  0  0  0  0  0  0  0  0  0  0  0
    1.8265   -0.4560    1.2640 H   0  0  0  0  0  0  0  0  0  0  0  0
    2.5672    0.4580   -0.0646 H   0  0  0  0  0  0  0  0  0  0  0  0
    1.8688   -1.1570   -0.3351 H   0  0  0  0  0  0  0  0  0  0  0  0
   -1.9832    2.1547   -3.5126 H   0  0  0  0  0  0  0  0  0  0  0  0
   -0.8732    0.8079   -3.9154 H   0  0  0  0  0  0  0  0  0  0  0  0
   -0.2201    2.4200   -3.5218 H   0  0  0  0  0  0  0  0  0  0  0  0
    0.4238   -0.1528   -2.2141 H   0  0  0  0  0  0  0  0  0  0  0  0
    1.0895    1.4661   -1.8795 H   0  0  0  0  0  0  0  0  0  0  0  0
   -1.7515    0.0404    0.1179 H   0  0  0  0  0  0  0  0  0  0  0  0
   -1.5867   -2.1797   -0.0945 H   0  0  0  0  0  0  0  0  0  0  0  0
    1.0604    2.1965    0.2823 H   0  0  0  0  0  0  0  0  0  0  0  0
  1  5  1  0  0  0  0
  2  6  1  0  0  0  0
  3  9  1  0  0  0  0
  4  6  1  0  0  0  0
  4  9  1  0  0  0  0
  5  6  1  0  0  0  0
  5  7  1  0  0  0  0
  6  8  1  0  0  0  0
  1 10  1  0  0  0  0
  1 11  1  0  0  0  0
  1 12  1  0  0  0  0
  2 13  1  0  0  0  0
  2 14  1  0  0  0  0
  2 15  1  0  0  0  0
  3 16  1  0  0  0  0
  3 17  1  0  0  0  0
  3 18  1  0  0  0  0
  4 19  1  0  0  0  0
  4 20  1  0  0  0  0
  5 21  1  0  0  0  0
  7 22  1  0  0  0  0
  8 23  1  0  0  0  0
M  END
$$$$
